Mass Spectrum: Xenon
Formula: Xe
CAS: 7440-63-3
Molecular weight: 132
Origin: ATLANTIC REFINING CO., PHILADELPHIA, PENNSYLVANIA
m/z	RELATIVE INTENSITY
62	1
64	132
65	293
66	1776
67	690
68	605
124	35
126	34
128	705
129	9840
130	1520
131	7939
132	9999
134	3783
136	3197
